<?xml version="1.0" encoding="iso-8859-1"?>
<configuration xmlns:xsi="http://www.w3.org/2001/XMLSchema-instance"
 xsi:noNamespaceSchemaLocation="http://sumo.sf.net/xsd/sumoConfiguration.xsd">
     <gui-settings-file value="guiConfig.xml"/>
    <input>
        <net-file value="bath.net.xml"/>
        <route-files value="route-simpleConvoy.xml"/>
	<!--route-files value="route.xml"/-->
    </input>
    <time>
        <begin value="0"/>
        <end value="549000"/>
    </time>

</configuration>
