<?xml version="1.0" encoding="iso-8859-1"?>
<configuration xmlns:xsi="http://www.w3.org/2001/XMLSchema-instance"
 xsi:noNamespaceSchemaLocation="http://sumo.sf.net/xsd/sumoConfiguration.xsd">
    <gui-settings-file value="guiConfig.xml"/>
    <input>
        <net-file value="m25j10.net.xml"/>
	<!--net-file value="testm25.net.xml"/-->
	<route-files value="m25route.xml"/>
	<additional-files value="m25FlowFlashLight.xml"/>
	<!--additional-files value="m25FlowVSL.xml,input_vss.xml"/-->

	<!-- input_det for detectors, input_vss for variable speed limit -->
	<!--additional-files value="testFlowRoute.xml,input_det.add.xml,input_vss.xml"/-->

    </input>
    <time>
        <begin value="0"/>
		<step-length value="0.5"/>
        <end value="549000"/>
    </time>

</configuration>
